LTspice 24.0.11 for Windows
Circuit: * D:\4 WORKSPACE\24-OBC\OBC\0101 Modeling and Simulation\0001 LT SPICE SIMULATION\AC Input Filter\Input_Filter.asc
Start Time: Wed May  1 00:24:59 2024
solver = Normal
Maximum thread count: 16
tnom = 27
temp = 27
method = modified trap
.OP point found by inspection.
Total elapsed time: 0.179 seconds.

