LTspice 24.0.12 for Windows
Circuit: * D:\4 WORKSPACE\24-OBC\OBC\0101 Modeling and Simulation\0001 LT SPICE SIMULATION\AC Input Filter\Input_Filter.asc
Start Time: Sat Aug 10 17:28:21 2024
solver = Normal
Maximum thread count: 16
tnom = 27
temp = 27
method = modified trap
.OP point found by inspection.
Total elapsed time: 0.036 seconds.

